<?xml version="1.0" encoding="UTF-8"?>
<net version="1.9" xmlns:xsi="http://www.w3.org/2001/XMLSchema-instance" xsi:noNamespaceSchemaLocation="http://sumo.dlr.de/xsd/net_file.xsd">
    <location netOffset="0.00,0.00" convBoundary="-200.00,-200.00,200.00,200.00" origBoundary="-200.00,-200.00,200.00,200.00" projParameter="!"/>

    <!-- roundabout nodes -->
    <edge id=":r0_0" function="internal"><lane id=":r0_0_0" index="0" speed="8.00" length="19.63" shape="15.00,3.00 12.99,9.00 9.00,13.00 3.00,15.00"/></edge>
    <edge id=":r1_0" function="internal"><lane id=":r1_0_0" index="0" speed="8.00" length="19.63" shape="-3.00,15.00 -9.00,13.00 -13.00,9.00 -15.00,3.00"/></edge>
    <edge id=":r2_0" function="internal"><lane id=":r2_0_0" index="0" speed="8.00" length="19.63" shape="-15.00,-3.00 -13.00,-9.00 -9.00,-13.00 -3.00,-15.00"/></edge>
    <edge id=":r3_0" function="internal"><lane id=":r3_0_0" index="0" speed="8.00" length="19.63" shape="3.00,-15.00 9.00,-13.00 13.00,-9.00 15.00,-3.00"/></edge>
    <edge id=":n_0" function="internal"><lane id=":n_0_0" index="0" speed="8.00" length="5.00" shape="0.00,100.00 0.00,20.00"/></edge>
    <edge id=":s_0" function="internal"><lane id=":s_0_0" index="0" speed="8.00" length="5.00" shape="0.00,-20.00 0.00,-100.00"/></edge>
    <edge id=":e_0" function="internal"><lane id=":e_0_0" index="0" speed="8.00" length="5.00" shape="100.00,0.00 20.00,0.00"/></edge>
    <edge id=":w_0" function="internal"><lane id=":w_0_0" index="0" speed="8.00" length="5.00" shape="-20.00,0.00 -100.00,0.00"/></edge>

    <!-- approach roads -->
    <edge id="north_in" from="north" to="r0" priority="1">
        <lane id="north_in_0" index="0" speed="13.89" length="80.00" shape="0.00,100.00 0.00,20.00"/>
    </edge>
    <edge id="north_out" from="r1" to="north" priority="1">
        <lane id="north_out_0" index="0" speed="13.89" length="80.00" shape="0.00,20.00 0.00,100.00"/>
    </edge>
    <edge id="south_in" from="south" to="r2" priority="1">
        <lane id="south_in_0" index="0" speed="13.89" length="80.00" shape="0.00,-100.00 0.00,-20.00"/>
    </edge>
    <edge id="south_out" from="r3" to="south" priority="1">
        <lane id="south_out_0" index="0" speed="13.89" length="80.00" shape="0.00,-20.00 0.00,-100.00"/>
    </edge>
    <edge id="east_in" from="east" to="r1" priority="1">
        <lane id="east_in_0" index="0" speed="13.89" length="80.00" shape="100.00,0.00 20.00,0.00"/>
    </edge>
    <edge id="east_out" from="r0" to="east" priority="1">
        <lane id="east_out_0" index="0" speed="13.89" length="80.00" shape="20.00,0.00 100.00,0.00"/>
    </edge>
    <edge id="west_in" from="west" to="r3" priority="1">
        <lane id="west_in_0" index="0" speed="13.89" length="80.00" shape="-100.00,0.00 -20.00,0.00"/>
    </edge>
    <edge id="west_out" from="r2" to="west" priority="1">
        <lane id="west_out_0" index="0" speed="13.89" length="80.00" shape="-20.00,0.00 -100.00,0.00"/>
    </edge>

    <!-- roundabout internal edges -->
    <edge id="ring_ne" from="r0" to="r1" priority="2">
        <lane id="ring_ne_0" index="0" speed="8.00" length="31.42" shape="15.00,3.00 12.99,9.00 9.00,13.00 3.00,15.00 -3.00,15.00"/>
    </edge>
    <edge id="ring_nw" from="r1" to="r2" priority="2">
        <lane id="ring_nw_0" index="0" speed="8.00" length="31.42" shape="-3.00,15.00 -9.00,13.00 -13.00,9.00 -15.00,3.00 -15.00,-3.00"/>
    </edge>
    <edge id="ring_sw" from="r2" to="r3" priority="2">
        <lane id="ring_sw_0" index="0" speed="8.00" length="31.42" shape="-15.00,-3.00 -13.00,-9.00 -9.00,-13.00 -3.00,-15.00 3.00,-15.00"/>
    </edge>
    <edge id="ring_se" from="r3" to="r0" priority="2">
        <lane id="ring_se_0" index="0" speed="8.00" length="31.42" shape="3.00,-15.00 9.00,-13.00 13.00,-9.00 15.00,-3.00 15.00,3.00"/>
    </edge>

    <!-- junctions -->
    <junction id="north" type="dead_end" x="0.00" y="100.00" incLanes="north_out_0" intLanes="" shape="5.00,100.00 -5.00,100.00"/>
    <junction id="south" type="dead_end" x="0.00" y="-100.00" incLanes="south_out_0" intLanes="" shape="-5.00,-100.00 5.00,-100.00"/>
    <junction id="east" type="dead_end" x="100.00" y="0.00" incLanes="east_out_0" intLanes="" shape="100.00,5.00 100.00,-5.00"/>
    <junction id="west" type="dead_end" x="-100.00" y="0.00" incLanes="west_out_0" intLanes="" shape="-100.00,-5.00 -100.00,5.00"/>
    <junction id="r0" type="priority" x="15.00" y="0.00" incLanes="north_in_0 ring_se_0" intLanes=":r0_0_0" shape="20.00,5.00 10.00,5.00 10.00,-5.00 20.00,-5.00"/>
    <junction id="r1" type="priority" x="0.00" y="15.00" incLanes="east_in_0 ring_ne_0" intLanes=":r1_0_0" shape="5.00,20.00 5.00,10.00 -5.00,10.00 -5.00,20.00"/>
    <junction id="r2" type="priority" x="-15.00" y="0.00" incLanes="ring_nw_0" intLanes=":r2_0_0" shape="-10.00,5.00 -20.00,5.00 -20.00,-5.00 -10.00,-5.00"/>
    <junction id="r3" type="priority" x="0.00" y="-15.00" incLanes="west_in_0 ring_sw_0" intLanes=":r3_0_0" shape="-5.00,-10.00 -5.00,-20.00 5.00,-20.00 5.00,-10.00"/>

    <!-- connections -->
    <connection from="north_in" to="ring_ne" fromLane="0" toLane="0" via=":r0_0_0" dir="s" state="M"/>
    <connection from="ring_se" to="east_out" fromLane="0" toLane="0" via=":r0_0_0" dir="r" state="M"/>
    <connection from="east_in" to="ring_nw" fromLane="0" toLane="0" via=":r1_0_0" dir="s" state="M"/>
    <connection from="ring_ne" to="north_out" fromLane="0" toLane="0" via=":r1_0_0" dir="r" state="M"/>
    <connection from="ring_nw" to="west_out" fromLane="0" toLane="0" via=":r2_0_0" dir="r" state="M"/>
    <connection from="west_in" to="ring_sw" fromLane="0" toLane="0" via=":r3_0_0" dir="s" state="M"/>
    <connection from="ring_sw" to="south_out" fromLane="0" toLane="0" via=":r3_0_0" dir="r" state="M"/>
    <connection from="ring_ne" to="ring_nw" fromLane="0" toLane="0" dir="s" state="M"/>
    <connection from="ring_nw" to="ring_sw" fromLane="0" toLane="0" dir="s" state="M"/>
    <connection from="ring_sw" to="ring_se" fromLane="0" toLane="0" dir="s" state="M"/>
    <connection from="ring_se" to="ring_ne" fromLane="0" toLane="0" dir="s" state="M"/>

    <roundabout nodes="r0 r1 r2 r3" edges="ring_ne ring_nw ring_sw ring_se"/>
</net>