<routes>

    <route id="1" edges="1_main_0 1_main_1" />
    <route id="2" edges="2_main_0" />

</routes>
