<?xml version="1.0" encoding="UTF-8"?>

<!-- generated on 2022-02-11 12:32:03 by Eclipse SUMO netedit Version v1_11_0+0041-46d25eca05a
<configuration xmlns:xsi="http://www.w3.org/2001/XMLSchema-instance" xsi:noNamespaceSchemaLocation="http://sumo.dlr.de/xsd/netconvertConfiguration.xsd">

    <input>
        <sumo-net-file value="/data/HighD_Sim/highD/map_SUMO/highD_2.net.xml"/>
    </input>

    <output>
        <output-file value="/data/HighD_Sim/highD/map_SUMO/highD_2.net.xml"/>
    </output>

    <processing>
        <geometry.min-radius.fix.railways value="false"/>
        <geometry.max-grade.fix value="false"/>
        <offset.disable-normalization value="true"/>
        <lefthand value="false"/>
    </processing>

    <junctions>
        <no-internal-links value="true"/>
        <no-turnarounds value="true"/>
        <junctions.corner-detail value="5"/>
        <junctions.limit-turn-speed value="5.5"/>
        <rectangular-lane-cut value="false"/>
    </junctions>

    <pedestrian>
        <walkingareas value="false"/>
    </pedestrian>

    <report>
        <aggregate-warnings value="5"/>
    </report>

</configuration>
-->

<net version="1.9" junctionCornerDetail="5" limitTurnSpeed="5.50" xmlns:xsi="http://www.w3.org/2001/XMLSchema-instance" xsi:noNamespaceSchemaLocation="http://sumo.dlr.de/xsd/net_file.xsd">

    <location netOffset="0.00,0.00" convBoundary="0.00,23.65,410.00,25.60" origBoundary="-10000000000.00,-10000000000.00,10000000000.00,10000000000.00" projParameter="!"/>

    <type id="edgeType_0" width="3.50"/>

    <edge id="1_main_0" from="gneJ1" to="gneJ0" priority="-1" type="edgeType_0">
        <lane id="1_main_0_0" index="0" speed="100.00" length="410.00" width="3.75" shape="410.00,34.98 0.00,34.98"/>
        <lane id="1_main_0_1" index="1" speed="100.00" length="410.00" width="3.75" shape="410.00,31.23 0.00,31.23"/>
        <lane id="1_main_0_2" index="2" speed="100.00" length="410.00" width="3.75" shape="410.00,27.48 0.00,27.48"/>
    </edge>
    <edge id="2_main_0" from="gneJ3" to="gneJ2" priority="-1" type="edgeType_0">
        <lane id="2_main_0_0" index="0" speed="100.00" length="410.00" width="3.75" shape="0.00,14.27 410.00,14.27"/>
        <lane id="2_main_0_1" index="1" speed="100.00" length="410.00" width="3.75" shape="0.00,18.02 410.00,18.02"/>
        <lane id="2_main_0_2" index="2" speed="100.00" length="410.00" width="3.75" shape="0.00,21.77 410.00,21.77"/>
    </edge>

    <junction id="gneJ0" type="dead_end" x="0.00" y="25.60" incLanes="1_main_0_0 1_main_0_1 1_main_0_2" intLanes="" shape="0.00,36.85 0.00,25.60"/>
    <junction id="gneJ1" type="dead_end" x="410.00" y="25.60" incLanes="" intLanes="" shape="410.00,25.60 410.00,36.85"/>
    <junction id="gneJ2" type="dead_end" x="410.00" y="23.65" incLanes="2_main_0_0 2_main_0_1 2_main_0_2" intLanes="" shape="410.00,12.40 410.00,23.65"/>
    <junction id="gneJ3" type="dead_end" x="0.00" y="23.65" incLanes="" intLanes="" shape="0.00,23.65 0.00,12.40"/>

</net>
