<?xml version="1.0" encoding="UTF-8"?>

<!-- generated on 2022-02-11 12:24:26 by Eclipse SUMO netedit Version v1_11_0+0041-46d25eca05a
<configuration xmlns:xsi="http://www.w3.org/2001/XMLSchema-instance" xsi:noNamespaceSchemaLocation="http://sumo.dlr.de/xsd/netconvertConfiguration.xsd">

    <input>
        <sumo-net-file value="/data/HighD_Sim/highD/map_SUMO/highD_1.net.xml"/>
    </input>

    <output>
        <output-file value="/data/HighD_Sim/highD/map_SUMO/highD_1.net.xml"/>
    </output>

    <processing>
        <geometry.min-radius.fix.railways value="false"/>
        <geometry.max-grade.fix value="false"/>
        <offset.disable-normalization value="true"/>
        <lefthand value="false"/>
    </processing>

    <junctions>
        <no-internal-links value="true"/>
        <no-turnarounds value="true"/>
        <junctions.corner-detail value="5"/>
        <junctions.limit-turn-speed value="5.5"/>
        <rectangular-lane-cut value="false"/>
    </junctions>

    <pedestrian>
        <walkingareas value="false"/>
    </pedestrian>

    <report>
        <aggregate-warnings value="5"/>
    </report>

</configuration>
-->

<net version="1.9" junctionCornerDetail="5" limitTurnSpeed="5.50" xmlns:xsi="http://www.w3.org/2001/XMLSchema-instance" xsi:noNamespaceSchemaLocation="http://sumo.dlr.de/xsd/net_file.xsd">

    <location netOffset="0.00,0.00" convBoundary="0.00,29.00,410.00,33.50" origBoundary="-10000000000.00,-10000000000.00,10000000000.00,10000000000.00" projParameter="!"/>

    <type id="edgeType_0" speed="50.00" disallow="pedestrian tram rail_urban rail rail_electric rail_fast ship" width="3.50"/>

    <edge id="1_main_0" from="gneJ20" to="gneJ21" priority="-1" type="edgeType_0">
        <lane id="1_main_0_0" index="0" disallow="pedestrian tram rail_urban rail rail_electric rail_fast ship" speed="100.00" length="410.00" width="4.00" shape="410.00,39.50 0.00,39.50"/>
        <lane id="1_main_0_1" index="1" disallow="pedestrian tram rail_urban rail rail_electric rail_fast ship" speed="100.00" length="410.00" width="4.00" shape="410.00,35.50 0.00,35.50"/>
    </edge>
    <edge id="2_main_0" from="gneJ22" to="gneJ23" priority="-1" type="edgeType_0">
        <lane id="2_main_0_0" index="0" disallow="pedestrian tram rail_urban rail rail_electric rail_fast ship" speed="100.00" length="410.00" width="4.00" shape="0.00,23.00 410.00,23.00"/>
        <lane id="2_main_0_1" index="1" disallow="pedestrian tram rail_urban rail rail_electric rail_fast ship" speed="100.00" length="410.00" width="4.00" shape="0.00,27.00 410.00,27.00"/>
    </edge>

    <junction id="gneJ20" type="dead_end" x="410.00" y="33.50" incLanes="" intLanes="" shape="410.00,33.50 410.00,41.50"/>
    <junction id="gneJ21" type="dead_end" x="0.00" y="33.50" incLanes="1_main_0_0 1_main_0_1" intLanes="" shape="0.00,41.50 0.00,33.50"/>
    <junction id="gneJ22" type="dead_end" x="0.00" y="29.00" incLanes="" intLanes="" shape="0.00,29.00 0.00,21.00"/>
    <junction id="gneJ23" type="dead_end" x="410.00" y="29.00" incLanes="2_main_0_0 2_main_0_1" intLanes="" shape="410.00,21.00 410.00,29.00"/>

</net>
