<?xml version="1.0" encoding="UTF-8"?>

<!-- generated on 2022-02-11 12:43:44 by Eclipse SUMO netedit Version v1_11_0+0041-46d25eca05a
<configuration xmlns:xsi="http://www.w3.org/2001/XMLSchema-instance" xsi:noNamespaceSchemaLocation="http://sumo.dlr.de/xsd/netconvertConfiguration.xsd">

    <input>
        <sumo-net-file value="/data/HighD_Sim/highD/map_SUMO/highD_3.net.xml"/>
    </input>

    <output>
        <output-file value="/data/HighD_Sim/highD/map_SUMO/highD_3.net.xml"/>
    </output>

    <processing>
        <geometry.min-radius.fix.railways value="false"/>
        <geometry.max-grade.fix value="false"/>
        <offset.disable-normalization value="true"/>
        <lefthand value="false"/>
    </processing>

    <junctions>
        <no-internal-links value="true"/>
        <no-turnarounds value="true"/>
        <junctions.corner-detail value="5"/>
        <junctions.limit-turn-speed value="5.5"/>
        <rectangular-lane-cut value="false"/>
    </junctions>

    <pedestrian>
        <walkingareas value="false"/>
    </pedestrian>

    <report>
        <aggregate-warnings value="5"/>
    </report>

</configuration>
-->

<net version="1.9" junctionCornerDetail="5" limitTurnSpeed="5.50" xmlns:xsi="http://www.w3.org/2001/XMLSchema-instance" xsi:noNamespaceSchemaLocation="http://sumo.dlr.de/xsd/net_file.xsd">

    <location netOffset="0.00,0.00" convBoundary="0.00,30.65,410.00,35.25" origBoundary="-10000000000.00,-10000000000.00,10000000000.00,10000000000.00" projParameter="!"/>

    <type id="edgeType_0" speed="20.00" width="3.50"/>

    <edge id="1_main_0" from="J2" to="J3" priority="-1">
        <lane id="1_main_0_0" index="0" speed="100.00" length="410.00" width="3.75" shape="410.00,44.62 0.00,44.62"/>
        <lane id="1_main_0_1" index="1" speed="100.00" length="410.00" width="3.75" shape="410.00,40.88 0.00,40.88"/>
        <lane id="1_main_0_2" index="2" speed="100.00" length="410.00" width="3.75" shape="410.00,37.12 0.00,37.12"/>
    </edge>
    <edge id="2_main_0" from="J0" to="J1" priority="-1">
        <lane id="2_main_0_0" index="0" speed="100.00" length="410.00" width="3.75" shape="0.00,21.27 410.00,21.27"/>
        <lane id="2_main_0_1" index="1" speed="100.00" length="410.00" width="3.75" shape="0.00,25.02 410.00,25.02"/>
        <lane id="2_main_0_2" index="2" speed="100.00" length="410.00" width="3.75" shape="0.00,28.77 410.00,28.77"/>
    </edge>

    <junction id="J0" type="dead_end" x="0.00" y="30.65" incLanes="" intLanes="" shape="0.00,30.65 0.00,19.40"/>
    <junction id="J1" type="dead_end" x="410.00" y="30.65" incLanes="2_main_0_0 2_main_0_1 2_main_0_2" intLanes="" shape="410.00,19.40 410.00,30.65"/>
    <junction id="J2" type="dead_end" x="410.00" y="35.25" incLanes="" intLanes="" shape="410.00,35.25 410.00,46.50"/>
    <junction id="J3" type="dead_end" x="0.00" y="35.25" incLanes="1_main_0_0 1_main_0_1 1_main_0_2" intLanes="" shape="0.00,46.50 0.00,35.25"/>

</net>
